test/data/dist/3Bus_example_Curr_Seq.Txt

SYMMETRICAL COMPONENT CURRENTS BY CIRCUIT ELEMENT (first 3 phases)

Element          Term      I1         I2         %I2/I1    I0         %I0/I1   %Normal %Emergency

"VSOURCE.SOURCE"   1      1412.4   6.7822E-007     0.00  3.9736E-008     0.00      0.00     0.00
   -               2      1412.4   6.7822E-007     0.00  3.9736E-008     0.00      0.00     0.00
"LINE.OHLINE" ..   1      1412.4   6.9846E-007     0.00  3.0618E-008     0.00    353.09   235.39
   -               2      1412.4   6.9846E-007     0.00  3.0618E-008     0.00      0.00     0.00
"LINE.QUAD" ....   1      1421.2   6.8778E-007     0.00  3.0618E-008     0.00    355.31   236.87
   -               2      1421.2   6.8778E-007     0.00  3.0618E-008     0.00      0.00     0.00
"LINE.PV_LINE" .   1      56.205   1.8851E-008     0.00  1.1689E-013     0.00     14.05     9.37
   -               2      56.203   1.885E-008     0.00  9.6616E-014     0.00      0.00     0.00
"PVSYSTEM.PV1" .   1      39.693   3.5527E-015     0.00  4.4409E-015     0.00      0.00     0.00
"STORAGE.BAT2" .   1      39.792   1.8851E-008     0.00  5.6173E-015     0.00      0.00     0.00
"FAULT.TEST" ...   1      1421.2   6.8778E-007     0.00  3.0618E-008     0.00      0.00     0.00
   -               2      1421.2   6.8778E-007     0.00  3.0618E-008     0.00      0.00     0.00
